test/data/pti/two-terminal-hvdc_test_2.raw
0,   100.00, 33, 0, 0, 60.00     / PSS(R)E-33.4    FRI, SEP 24 2021  16:00
 13/05/91 CYME INTERNATIONAL    100.0 1991 S
 SUBSYSTEM OF IEEE 300-BUS TEST SYSTEM, MODIFIED BY JUAN LUIS BARBERIA
   115,'2           ', 115.0000,1,   1,   2,   1,1.07096,  25.6455,1.10000,0.90000,1.10000,0.90000
   116,'2           ', 115.0000,1,   1,   2,   1,1.02501,  44.1106,1.10000,0.90000,1.10000,0.90000
   117,'2           ', 115.0000,1,   1,   2,   1,0.95466,  39.9743,1.10000,0.90000,1.10000,0.90000
   118,'2           ', 115.0000,1,   1,   2,   1,0.94906,  39.9931,1.10000,0.90000,1.10000,0.90000
   119,'2           ', 115.0000,3,   1,   2,   1,1.04350,  40.9914,1.10000,0.90000,1.10000,0.90000
   120,'2           ', 115.0000,1,   1,   2,   1,1.02496,  44.1106,1.10000,0.90000,1.10000,0.90000
   121,'2           ', 115.0000,1,   1,   2,   1,0.96386,  25.6455,1.10000,0.90000,1.10000,0.90000
  1190,'1190        ',  86.0000,1,   1,   1,   1,1.03582,  39.7838,1.10000,0.90000,1.10000,0.90000
  1200,'1200        ',  86.0000,1,   1,   1,   1,1.01698,  45.3750,1.10000,0.90000,1.10000,0.90000
  1201,'2           ', 115.0000,1,   1,   2,   1,1.14698,  49.2208,1.10000,0.90000,1.10000,0.90000
0 / END OF BUS DATA, BEGIN LOAD DATA
   118,'1 ',1,   2,   2,    14.100,   650.000,     0.000,     0.000,     0.000,     0.000,   1,1,0
   121,'1 ',1,   2,   2,   535.000,    55.000,     0.000,     0.000,     0.000,     0.000,   1,1,0
  1190,'1 ',1,   1,   1,   100.310,    29.170,     0.000,     0.000,     0.000,     0.000,   1,1,0
  1200,'1 ',1,   1,   1,  -100.000,    34.170,     0.000,     0.000,     0.000,     0.000,   1,1,0
0 / END OF LOAD DATA, BEGIN FIXED SHUNT DATA
   117,' 1',1,     0.000,   325.000
   120,' 1',1,     0.000,    55.000
0 / END OF FIXED SHUNT DATA, BEGIN GENERATOR DATA
   119,'1 ',   550.053,   698.112,  1500.000,  -500.000,1.04350,     0,   100.000, 0.00000E+0, 1.00000E+0, 0.00000E+0, 0.00000E+0,1.00000,1,  100.0,  9999.000, -9999.000,   1,1.0000
0 / END OF GENERATOR DATA, BEGIN BRANCH DATA
   116,   120,'1 ', 2.00000E-3, 1.04900E-1,   0.00100,    0.00,    0.00,    0.00,  0.00000,  0.00000,  0.00000,  0.00000,1,1,   0.00,   1,1.0000
   117,   118,'1 ', 1.00000E-4, 1.80000E-3,   0.01700,    0.00,    0.00,    0.00,  0.00000,  0.00000,  0.00000,  0.00000,1,1,   0.00,   1,1.0000
   118,   119,'1 ', 0.00000E+0, 2.71000E-2,   0.00000,    0.00,    0.00,    0.00,  0.00000,  0.00000,  0.00000,  0.00000,1,1,   0.00,   1,1.0000
   118,   121,'1 ', 2.20000E-3, 2.91500E-1,   0.00000,    0.00,    0.00,    0.00,  0.00000,  0.00000,  0.00000,  0.00000,1,1,   0.00,   1,1.0000
   118,  1201,'1 ', 0.00000E+0, 6.16300E-1,   0.00000,    0.00,    0.00,    0.00,  0.00000,  0.00000,  0.00000,  0.00000,1,1,   0.00,   1,1.0000
   119,   120,'1 ', 0.00000E+0, 3.39000E-2,   0.00000,    0.00,    0.00,    0.00,  0.00000,  0.00000,  0.00000,  0.00000,1,1,   0.00,   1,1.0000
   119,   121,'1 ', 0.00000E+0, 5.82000E-2,   0.00000,    0.00,    0.00,    0.00,  0.00000,  0.00000,  0.00000,  0.00000,1,1,   0.00,   1,1.0000
   119,  1190,'1 ', 1.00000E-3, 2.30000E-2,   0.00000,    0.00,    0.00,    0.00,  0.00000,  0.00000,  0.00000,  0.00000,1,1,   0.00,   1,1.0000
   120,  1200,'1 ', 0.00000E+0, 2.30000E-2,   0.00000,    0.00,    0.00,    0.00,  0.00000,  0.00000,  0.00000,  0.00000,1,1,   0.00,   1,1.0000
   120,  1201,'1 ', 0.00000E+0,-3.69700E-1,   0.00000,    0.00,    0.00,    0.00,  0.00000,  0.00000,  0.00000,  0.00000,1,2,   0.00,   1,1.0000
0 / END OF BRANCH DATA, BEGIN TRANSFORMER DATA
   121,   115,     0,'1 ',1,1,1, 0.00000E+0, 0.00000E+0,2,'            ',1,   1,1.0000,   0,1.0000,   0,1.0000,   0,1.0000,'            '
 0.00000E+0, 2.80000E-2,   100.00
0.90000,   0.000,   0.000,     0.00,     0.00,     0.00, 1,    115, 1.10000, 0.90000, 1.10000, 0.90000, 101, 0, 0.00000, 0.00000,  0.000
1.00000,   0.000
0 / END OF TRANSFORMER DATA, BEGIN AREA DATA
   1,     0,   100.000,     5.000,'0           '
   2,     0,   -40.000,     5.000,'0           '
0 / END OF AREA DATA, BEGIN TWO-TERMINAL DC DATA
"1           ",1,    6.2000,   -100.00,    460.00,    300.00,    0.0000,   0.10000,'I',      0.00,   0,   0.00000
   119, 4,20.00,15.00, 0.0000, 6.8000, 115.0,0.74780,0.99365,1.50000,0.51000,0.00625,     0,     0,     0,'1 ', 0.0000
   120, 4,18.00,20.00, 0.0000, 6.8000, 115.0,0.74780,0.96625,1.50000,0.51000,0.00625,     0,     0,     0,'1 ', 0.0000
0 / END OF TWO-TERMINAL DC DATA, BEGIN VSC DC LINE DATA
0 / END OF VSC DC LINE DATA, BEGIN IMPEDANCE CORRECTION DATA
0 / END OF IMPEDANCE CORRECTION DATA, BEGIN MULTI-TERMINAL DC DATA
0 / END OF MULTI-TERMINAL DC DATA, BEGIN MULTI-SECTION LINE DATA
0 / END OF MULTI-SECTION LINE DATA, BEGIN ZONE DATA
   1,'1           '
   2,'2           '
0 / END OF ZONE DATA, BEGIN INTER-AREA TRANSFER DATA
0 / END OF INTER-AREA TRANSFER DATA, BEGIN OWNER DATA
   1,'1           '
0 / END OF OWNER DATA, BEGIN FACTS DEVICE DATA
0 / END OF FACTS DEVICE DATA, BEGIN SWITCHED SHUNT DATA
0 / END OF SWITCHED SHUNT DATA, BEGIN GNE DATA
0 / END OF GNE DATA, BEGIN INDUCTION MACHINE DATA
0 / END OF INDUCTION MACHINE DATA
Q
